ipss.test.plugin.core/testData/ucte/MarioTest3_XfrReg.uct
##C 2007.05.01

##C----Knoteninformationen--------------------------------------------------------
         1         2         3         4         5         6         7         8         9        10        11
12345678901234567890123456789012345678901234567890123456789012345678901234567890123456789012345678901234567890
<Knoten> <Knotenname> * * < Spg> <PLast> <QLast> <PEin > <QEin > <PMin > <PMax > <QMin > <QMax > <Sta> <PPrim>
##N
##ZAT
OA1   1                 0        280.000 .000000 .000000 .000000
OA2   1                 0        .000000 .000000 -150.00 .000000
OA3   1                 0        200.000 .000000 .000000 .000000
OA4   1                 0        300.000 .000000 .000000 .000000
OA5   1                 0        .000000 .000000 -65.000 .000000
OA6   1                 0        .000000 .000000 -65.000 .000000
OB1   1                 0        30.0000 .000000 .000000 .000000
OB2   1                 0        .000000 .000000 -130.00 .000000
OB3   1                 0        .000000 .000000 -200.00 .000000
OB4   1                 3 405.00 70.0000 .000000 .000000 .000000
OB5   1                 0        80.0000 .000000 .000000 .000000
OC1   1                 0        .000000 .000000 -190.00 .000000
OC2   1                 0        320.000 .000000 .000000 .000000
OC3   1                 0        .000000 .000000 -10.000 .000000
OC4   1                 0        .000000 .000000 -120.00 .000000              
OD1   1                 0        .000000 .000000 -200.00 .000000
OD2   1                 0        .000000 .000000 -300.00 .000000
OD3   2                 0        150.000 .000000 .000000 .000000
##C-----Leitungen-------------------------------------------
         1         2         3         4         5         6
123456789012345678901234567890123456789012345678901234567890
<  Kn1 > <  Kn2 > O E R(Ohm) X(Ohm) C (miuS) Itherm  
##L 
OA1   1  OA2   1  1 0 1.3600 19.350 240.9601    480
OA1   1  OA6   1  1 0 1.3600 19.350 240.9601    480
OA1   1  OB1   1  1 0 2.5560 36.900 431.0265    360
OA2   1  OA3   1  1 0 1.5640 22.630 264.4906    480
OA2   1  OA6   1  1 0 .30300 4.3690 51.05088    950
OA3   1  OA4   1  1 0 2.7740 38.660 481.9203    480
OA3   1  OA5   1  1 0 2.2540 32.530 380.1327    360
OA4   1  OA5   1  1 0 1.5640 22.630 264.4906    480
OA4   1  OC1   1  1 0 1.8460 26.760 311.6145    480
OA5   1  OC3   1  1 0 1.8460 26.760 311.6145    480
OA6   1  OC1   1  1 0 2.4980 31.620 426.3141    430
OA6   1  OB2   1  1 0 2.4980 31.620 426.3141    430
OB1   1  OB2   1  1 0 .78000 20.670 266.9411    830
OB1   1  OB3   1  1 0 .77700 20.670 266.9411    830
OB2   1  OB4   1  1 0 1.0395 14.785 172.4734    340
OB3   1  OB4   1  1 0 .72400 9.0600 105.9973    300
OB3   1  OB5   1  1 0 .72400 9.0600 105.9973    300
OB3   1  OC2   1  1 0 .72400 9.0600 105.9973    400
OB4   1  OC1   1  1 0 .99100 14.270 168.7035    410
OB5   1  OC2   1  1 0 1.3325 10.640 177.9712    340
OC1   1  OC2   1  1 0 .83300 11.400 134.8528    400
OC1   1  OC3   1  1 0 .83300 11.400 134.8528    300
OC2   1  OD1   1  1 0 1.0240 14.410 337.7212    480
OC3   1  OD2   1  1 0 1.0240 14.410 337.7212    430
OC1   1  OC4   1  1 0 .75000 20.670 266.9411    830
OC3   1  OC4   1  1 0 .83300 11.400 134.8528    400
OC4   1  OD2   1  1 0 .78000 20.670 266.9411    830
OD1   1  OD2   1  1 0 1.0240 14.410 337.7212    300
##C-----Transformatoren mit ESB-Daten-------------------------------------------
         1         2         3         4         5         6         7         8
12345678901234567890123456789012345678901234567890123456789012345678901234567890
<  Kn1 > <Kn2   > O E Bem1  Bem2  <Sn > < R  > <  X > B (miuS) C miuS < Ith> Name
##T 
OD1   1  OD3   2  1 0 400.  230.  600.0 .20000 15.000 -16.0000 5.0000   1000 
OD2   1  OD3   2  1 0 400.  230.  600.0 .10000 10.000 -10.0000 9.9999   1000 
OD1   1  OC4   1  1 0 400.  400.  600.0 .06000 7.0000 -5.00000 .99999   1000 
##C--Regelinformationen---( _u: ungestellt, _g: gestellt )------------
         1         2         3         4         5         6         7
1234567890123456789012345678901234567890123456789012345678901234567890
                                <  Laengs >        <  Quer/Schraeg     >
<Name_u> <Name_g> O < % > ma ak        < % > <phi> ma ak  < P > asym
##R
OD1   1  OD3   2  1                    1.253 60.00 13   0                          
OD2   1  OD3   2  1 1.253 13  -2 .0000                                                    
OD1   1  OC4   1  1                    1.125 90.00 28  14       ASYM                    
